OPT_V10/Two_days_MYC3/powerflow_results_t42.txt
Pandapower Network Debug Info
==================================================

BUS:
       vm_pu  va_degree      p_mw    q_mvar
0   0.993009   0.161295  0.000802  0.000859
1   0.988583   0.258461  0.001270  0.002332
2   0.984646   0.336852  0.001950  0.002993
3   0.989118   0.274360  0.002175  0.004598
4   0.999890   0.000928  0.009595  0.008360
5   0.999876   0.001016  0.011806  0.008823
6   0.999867   0.001150  0.009800  0.012451
7   0.999932   0.000693  0.000000  0.000000
8   0.999931   0.000699  0.000000  0.000000
9   1.000000   0.000000 -0.037550 -0.045519
10  1.000000   0.000006  0.000000  0.000000
--------------------------------------------------

LINE:
   p_from_mw  q_from_mvar   p_to_mw  q_to_mvar         pl_mw       ql_mvar  i_from_ka   i_to_ka      i_ka  vm_from_pu  va_from_degree  vm_to_pu  va_to_degree  loading_percent
0   0.037540     0.041519 -0.037537  -0.041517  3.064627e-06  2.389540e-06   0.002154  0.002154  0.002154    1.000000        0.000006  0.999932      0.000693         0.936721
1   0.031203     0.029636 -0.031202  -0.029634  1.432243e-06  1.116743e-06   0.001656  0.001656  0.001656    0.999932        0.000693  0.999890      0.000928         0.720211
2   0.006324     0.010881 -0.006250  -0.010824  7.409839e-05  5.777574e-05   0.018167  0.018167  0.018167    0.999931        0.000699  0.993009      0.161295         7.898829
3  -0.021606    -0.021274  0.021607   0.021275  3.180392e-07  2.479804e-07   0.001167  0.001167  0.001167    0.999876        0.001016  0.999890      0.000928         0.507498
4  -0.009800    -0.012451  0.009800   0.012451  1.228216e-07  9.576601e-08   0.000610  0.000610  0.000610    0.999867        0.001150  0.999876      0.001016         0.265200
5  -0.003233    -0.005334  0.003256   0.005353  2.355271e-05  1.836443e-05   0.009107  0.009107  0.009107    0.988583        0.258461  0.993009      0.161295         3.959577
6  -0.002175    -0.004598  0.002192   0.004612  1.765846e-05  1.376859e-05   0.007423  0.007423  0.007423    0.989118        0.274360  0.993009      0.161295         3.227322
7  -0.001950    -0.002993  0.001962   0.003002  1.190811e-05  9.284950e-06   0.005237  0.005237  0.005237    0.984646        0.336852  0.988583      0.258461         2.276912
--------------------------------------------------

TRAFO:
    p_hv_mw  q_hv_mvar   p_lv_mw  q_lv_mvar    pl_mw  ql_mvar   i_hv_ka   i_lv_ka  vm_hv_pu  va_hv_degree  vm_lv_pu  va_lv_degree  loading_percent
0  0.006334   0.011881 -0.006324  -0.010881  0.00001    0.001  0.000518  0.018167  0.999932      0.000693  0.999931      0.000699         0.134652
1  0.037550   0.045519 -0.037540  -0.041519  0.00001    0.004  0.000487  0.002154  1.000000      0.000000  1.000000      0.000006         0.147522
--------------------------------------------------
